
history_aerosol=.true.

nhtfrq = 0, -24, -6, -3,  -1,   1, -24,-120,-240 

mfilt  = 1,   5, 20, 40, 120, 240, 365,  73, 365 

ndens  = 2,   2,  2,  2,   2,   2,   1,   1,   1


fincl1 = 'SST','TAUX','TAUY','TAUBLJX','TAUBLJY','BTAUNET','PRECC','PRECL','PRECT','FREQZM','PCONVB','PCONVT','PRECCDZM','Z700','Z500','Z200','Z300','Z100','Z050','U200','U850','V200','V850','T200','T500',   'T700','T1000','OMEGA500','OMEGA850','VTHzm','WTHzm','UVzm','UWzm','Uzm','Vzm','THzm','Wzm','dUzm','dVzm','dUazm','dVazm','dUfzm','U','V','T','Q','Z3','dU','dV','dUa','dVa','dUf','EFLX','PTTEND','IETEND_DME', 'PTTEND_DME','TFIX','EFIX','EP','QFLX','MEANPTOP','MEANTTOP','MEANTAU','TCLDAREA','RHREFHT','TREFMXAV','TREFMNAV','ozone','O3','TROP_P','TROP_T','TROP_Z','VT100'
